7ga5_A_705_1_5rhu+A+705+1__LIG
     RDKit          3D

 15 17  0  0  0  0  0  0  0  0999 V2000
  -10.3270   23.3840  -19.5550 C   0  0  0  0  0  0  0  0  0  0  0  0
   -8.9920   23.3890  -22.0030 C   0  0  0  0  0  0  0  0  0  0  0  0
  -14.8880   18.4270  -20.9660 C   0  0  0  0  0  0  0  0  0  0  0  0
  -14.2780   19.8400  -20.9210 C   0  0  0  0  0  0  0  0  0  0  0  0
  -13.2090   20.1040  -21.9400 N   0  0  0  0  0  0  0  0  0  0  0  0
  -13.2660   19.2840  -23.2050 C   0  0  0  0  0  0  0  0  0  0  0  0
  -13.9460   17.9210  -23.0840 C   0  0  0  0  0  0  0  0  0  0  0  0
  -14.1400   17.5080  -21.7370 N   0  0  0  0  0  0  0  0  0  0  0  0
  -12.1530   21.0820  -21.6940 C   0  0  0  0  0  0  0  0  0  0  0  0
  -11.9550   21.7200  -20.5010 N   0  0  0  0  0  0  0  0  0  0  0  0
  -10.7950   22.5910  -20.6000 C   0  0  0  0  0  0  0  0  0  0  0  0
   -9.1990   24.1750  -19.7330 C   0  0  0  0  0  0  0  0  0  0  0  0
   -8.5400   24.1790  -20.9750 C   0  0  0  0  0  0  0  0  0  0  0  0
  -10.1390   22.5880  -21.8270 C   0  0  0  0  0  0  0  0  0  0  0  0
  -10.9500   21.5380  -22.8030 S   0  0  0  0  0  0  0  0  0  0  0  0
  6  7  1  0
  6  5  1  0
  7  8  1  0
 15 14  1  0
 15  9  1  0
  2 14  2  0
  2 13  1  0
  5  9  1  0
  5  4  1  0
 14 11  1  0
  8  3  1  0
  9 10  2  0
 13 12  2  0
  3  4  1  0
 11 10  1  0
 11  1  2  0
 12  1  1  0
M  END
$$$$
