5rht_A_705_1_5rhu+A+705+1__LIG
     RDKit          3D

 15 15  0  0  0  0  0  0  0  0999 V2000
  -11.7270   24.2380  -14.7650 N   0  0  0  0  0  0  0  0  0  0  0  0
  -10.5160   23.6470  -18.1740 C   0  0  0  0  0  0  0  0  0  0  0  0
   -9.4110   24.4160  -18.5670 C   0  0  0  0  0  0  0  0  0  0  0  0
  -11.3430   24.5930  -16.0230 C   0  0  0  0  0  0  0  0  0  0  0  0
  -13.5660   22.6440  -18.8250 C   0  0  0  0  0  0  0  0  0  0  0  0
  -10.9560   23.5530  -16.8270 N   0  0  0  0  0  0  0  0  0  0  0  0
   -8.9910   24.3780  -19.8970 C   0  0  0  0  0  0  0  0  0  0  0  0
  -12.2970   22.0650  -18.7680 O   0  0  0  0  0  0  0  0  0  0  0  0
   -9.6520   23.5920  -20.8460 C   0  0  0  0  0  0  0  0  0  0  0  0
  -10.7660   22.8360  -20.4910 C   0  0  0  0  0  0  0  0  0  0  0  0
  -11.1910   22.8640  -19.1580 C   0  0  0  0  0  0  0  0  0  0  0  0
  -13.7450   22.9210  -20.0900 F   0  0  0  0  0  0  0  0  0  0  0  0
  -14.5220   21.8350  -18.4710 F   0  0  0  0  0  0  0  0  0  0  0  0
  -13.7100   23.7520  -18.0820 F   0  0  0  0  0  0  0  0  0  0  0  0
  -11.3820   26.2020  -16.4170 S   0  0  0  0  0  0  0  0  0  0  0  0
  1  4  1  0
 14  5  1  0
  6  4  1  0
  6  2  1  0
  4 15  2  0
  2  3  2  0
  2 11  1  0
  5 12  1  0
  5  8  1  0
  5 13  1  0
  3  7  1  0
  8 11  1  0
 11 10  2  0
  7  9  2  0
 10  9  1  0
M  END
$$$$
