7g9x_A_705_1_7g9x+A+705+1__LIG
     RDKit          3D

 12 13  0  0  0  0  0  0  0  0999 V2000
  -25.1470    6.8660  -49.3000 N   0  0  0  0  0  0  0  0  0  0  0  0
  -24.0000    5.2770  -50.2870 N   0  0  0  0  0  0  0  0  0  0  0  0
  -23.7970    6.5530  -52.4140 C   0  0  0  0  0  0  0  0  0  0  0  0
  -22.9160    5.6110  -53.2340 C   0  0  0  0  0  0  0  0  0  0  0  0
  -21.4960    5.5320  -52.7030 C   0  0  0  0  0  0  0  0  0  0  0  0
  -22.0160    6.6310  -50.5920 C   0  0  0  0  0  0  0  0  0  0  0  0
  -25.4420    4.6840  -48.5870 O   0  0  0  0  0  0  0  0  0  0  0  0
  -24.9020    5.4980  -49.3240 C   0  0  0  0  0  0  0  0  0  0  0  0
  -24.3600    7.5430  -50.1790 C   0  0  0  0  0  0  0  0  0  0  0  0
  -24.3620    8.7490  -50.3440 O   0  0  0  0  0  0  0  0  0  0  0  0
  -23.5100    6.5060  -50.9080 C   0  0  2  0  0  0  0  0  0  0  0  0
  -21.1460    6.6230  -51.7790 N   0  0  0  0  0  0  0  0  0  0  0  0
  4  5  1  0
  4  3  1  0
  5 12  1  0
 11  3  1  6
 12  6  1  0
 11  6  1  0
 11  2  1  0
 11  9  1  0
 10  9  2  0
  2  8  1  0
  9  1  1  0
  8  1  1  0
  8  7  2  0
M  END
$$$$
