7g9u_A_705_1_7g9u+A+705+1__LIG
     RDKit          3D

 17 18  0  0  0  0  0  0  0  0999 V2000
  -12.0840   -7.9790    7.0060 N   0  0  0  0  0  0  0  0  0  0  0  0
  -10.9050   -8.6340   11.3770 N   0  0  0  0  0  0  0  0  0  0  0  0
  -12.5890   -8.9850    9.7060 C   0  0  0  0  0  0  0  0  0  0  0  0
  -11.6920   -8.0180   10.4710 C   0  0  0  0  0  0  0  0  0  0  0  0
   -9.9360   -8.0700   12.2470 C   0  0  0  0  0  0  0  0  0  0  0  0
   -9.8130   -6.7120   12.5040 C   0  0  0  0  0  0  0  0  0  0  0  0
   -8.8130   -6.2380   13.3380 C   0  0  0  0  0  0  0  0  0  0  0  0
   -8.0760   -8.4850   13.7260 C   0  0  0  0  0  0  0  0  0  0  0  0
  -13.1990   -7.8070    7.5610 C   0  0  0  0  0  0  0  0  0  0  0  0
  -14.5300   -6.9400    6.8470 S   0  0  0  0  0  0  0  0  0  0  0  0
  -15.5230   -7.3360    8.2050 C   0  0  0  0  0  0  0  0  0  0  0  0
  -14.8290   -7.9830    9.1500 C   0  0  0  0  0  0  0  0  0  0  0  0
  -13.5120   -8.2740    8.8320 N   0  0  0  0  0  0  0  0  0  0  0  0
  -11.7080   -6.8180   10.2300 O   0  0  0  0  0  0  0  0  0  0  0  0
   -7.9670   -7.1390   13.9260 C   0  0  0  0  0  0  0  0  0  0  0  0
   -7.0080   -6.6810   14.7810 F   0  0  0  0  0  0  0  0  0  0  0  0
   -9.0530   -8.9460   12.8610 C   0  0  0  0  0  0  0  0  0  0  0  0
 10  9  1  0
 10 11  1  0
  1  9  1  0
  9 13  1  0
 11 12  2  0
 13 12  1  0
 13  3  1  0
  3  4  1  0
 14  4  2  0
  4  2  1  0
  2  5  1  0
  5  6  2  0
  5 17  1  0
  6  7  1  0
 17  8  2  0
  7 15  2  0
  8 15  1  0
 15 16  1  0
M  END
$$$$
