7g9w_A_705_1_7g9w+A+705+1__LIG
     RDKit          3D

 15 16  0  0  0  0  0  0  0  0999 V2000
  -23.6580    6.3420    4.8680 C   0  0  0  0  0  0  0  0  0  0  0  0
  -25.8890    7.4940    6.4460 C   0  0  0  0  0  0  0  0  0  0  0  0
  -23.4060    7.0750    6.1890 C   0  0  0  0  0  0  0  0  0  0  0  0
  -20.6580    2.8260    3.0920 C   0  0  0  0  0  0  0  0  0  0  0  0
  -20.0430    4.1580    2.8400 C   0  0  0  0  0  0  0  0  0  0  0  0
  -19.0760    4.3310    1.9200 N   0  0  0  0  0  0  0  0  0  0  0  0
  -18.6400    5.6140    1.8720 N   0  0  0  0  0  0  0  0  0  0  0  0
  -19.3830    6.2810    2.7650 C   0  0  0  0  0  0  0  0  0  0  0  0
  -19.1900    7.7430    2.9710 C   0  0  0  0  0  0  0  0  0  0  0  0
  -20.2630    5.3920    3.4150 C   0  0  0  0  0  0  0  0  0  0  0  0
  -21.2750    5.7180    4.4740 C   0  0  0  0  0  0  0  0  0  0  0  0
  -22.5080    6.3170    3.9420 N   0  0  0  0  0  0  0  0  0  0  0  0
  -24.9200    6.8720    4.1910 C   0  0  0  0  0  0  0  0  0  0  0  0
  -26.1340    6.7840    5.1220 C   0  0  0  0  0  0  0  0  0  0  0  0
  -24.6220    6.9850    7.1160 C   0  0  0  0  0  0  0  0  0  0  0  0
  4  5  1  0
  5  6  1  0
  5 10  2  0
  6  7  1  0
 10 11  1  0
 10  8  1  0
 11 12  1  0
  7  8  2  0
  8  9  1  0
 12  1  1  0
  1  3  1  0
  1 13  1  0
  3 15  1  0
 13 14  1  0
 15  2  1  0
 14  2  1  0
M  END
$$$$
