7g9l_A_705_1_5rhu+A+705+1__LIG
     RDKit          3D

 18 19  0  0  0  0  0  0  0  0999 V2000
  -13.7810   20.8220  -20.1650 C   0  0  0  0  0  0  0  0  0  0  0  0
  -12.6990   21.6830  -20.0800 C   0  0  0  0  0  0  0  0  0  0  0  0
  -11.6670   21.6540  -21.0180 C   0  0  0  0  0  0  0  0  0  0  0  0
  -10.5100   22.5800  -20.9320 C   0  0  0  0  0  0  0  0  0  0  0  0
  -10.2070   23.2530  -19.7530 C   0  0  0  0  0  0  0  0  0  0  0  0
   -8.3360   24.3260  -20.7940 C   0  0  0  0  0  0  0  0  0  0  0  0
  -11.7260   20.6760  -22.0110 C   0  0  0  0  0  0  0  0  0  0  0  0
  -15.7390   17.2760  -20.0370 C   0  0  0  0  0  0  0  0  0  0  0  0
  -17.1870   19.0140  -20.9840 C   0  0  0  0  0  0  0  0  0  0  0  0
  -15.8280   18.7510  -20.3580 C   0  0  2  0  0  0  0  0  0  0  0  0
  -14.8670   18.9900  -21.3790 O   0  0  0  0  0  0  0  0  0  0  0  0
  -13.8310   19.8810  -21.1850 C   0  0  0  0  0  0  0  0  0  0  0  0
   -9.1180   24.1080  -19.6820 C   0  0  0  0  0  0  0  0  0  0  0  0
   -8.6270   23.6820  -21.9740 C   0  0  0  0  0  0  0  0  0  0  0  0
   -9.7260   22.8400  -22.0530 C   0  0  0  0  0  0  0  0  0  0  0  0
  -12.7870   19.7930  -22.0930 C   0  0  0  0  0  0  0  0  0  0  0  0
  -15.3750   16.5130  -20.9690 O   0  0  0  0  0  0  0  0  0  0  0  0
  -16.0150   16.9240  -18.8680 O   0  0  0  0  0  0  0  0  0  0  0  0
 15 14  2  0
 15  4  1  0
 14  6  1  0
 16  7  2  0
 16 12  1  0
  7  3  1  0
 11 12  1  0
 11 10  1  0
 12  1  2  0
  3  4  1  0
  3  2  2  0
  4  5  2  0
  6 13  2  0
 10  9  1  6
 17  8  2  0
 10  8  1  0
  1  2  1  0
  8 18  1  0
  5 13  1  0
M  END
$$$$
