7ga1-a
     RDKit          3D

 13 14  0  0  0  0  0  0  0  0999 V2000
  -13.7520    6.4460  -28.6100 C   0  0  0  0  0  0  0  0  0  0  0  0
  -12.6780    6.7220  -29.4130 C   0  0  0  0  0  0  0  0  0  0  0  0
  -12.9520    8.4080  -27.6780 C   0  0  0  0  0  0  0  0  0  0  0  0
  -13.9550    7.4910  -27.6530 C   0  0  0  0  0  0  0  0  0  0  0  0
  -16.0930    5.3820  -28.8660 C   0  0  0  0  0  0  0  0  0  0  0  0
  -15.7830    3.3410  -27.7030 C   0  0  0  0  0  0  0  0  0  0  0  0
  -12.7520    3.8660  -26.1230 O   0  0  0  0  0  0  0  0  0  0  0  0
  -13.7970    4.3790  -26.4440 C   0  0  0  0  0  0  0  0  0  0  0  0
  -14.3860    3.9960  -27.7980 C   0  0  2  0  0  0  0  0  0  0  0  0
  -14.5750    5.2010  -28.7790 C   0  0  2  0  0  0  0  0  0  0  0  0
  -11.8610    8.1250  -28.9260 S   0  0  0  0  0  0  0  0  0  0  0  0
  -16.5840    3.9390  -28.8560 C   0  0  0  0  0  0  0  0  0  0  0  0
  -14.4030    5.1730  -25.7400 O   0  0  0  0  0  0  0  0  0  0  0  0
  2  1  2  0
  4  3  2  0
  4  1  1  0
  8  7  2  0
  9  6  1  0
  9  8  1  1
 10  9  1  0
 10  5  1  0
 10  1  1  1
 11  3  1  0
 11  2  1  0
 12  6  1  0
 12  5  1  0
 13  8  1  0
M  END
>  <id>  (1) 
9

>  <inchikey>  (1) 
GTNCFHPRVUWUBC-IUCAKERBSA-N

>  <alias>  (1) 
7ga1-a

>  <smiles>  (1) 
O=C(O)[C@H]1CCC[C@H]1c1ccsc1

>  <path>  (1) 
/opt/xchem-fragalysis-2/maxwin/BulkDock/TARGETS/ZIKA_NS3_helicase/aligned_files/7ga1-a/7ga1-a.pdb

>  <distance_score>  (1) 
None

>  <energy_score>  (1) 
None

>  <compound>  (1) 
GTNCFHPRVUWUBC-UHFFFAOYSA-N

>  <compound_id>  (1) 
9

>  <target>  (1) 
ZIKA_NS3_helicase

>  <tags>  (1) 
['[Other] Crystal contact - not trust', '[Other] upload_1 2025-01-30', '[Other] RNA Cleft', 'hits']

>  <inspirations>  (1) 


>  <reference>  (1) 


>  <observation_longname>  (1) 
7ga1_A_703_v1

>  <ConformerSites alias>  (1) 
2a - 7g9m/A/704

>  <CanonSites alias>  (1) 
2 - 7g9m/A/704/1

>  <CrystalformSites alias>  (1) 
F1b - 7ga1/A/703/1

>  <Quatassemblies alias>  (1) 
A1 - monomer

>  <Crystalforms alias>  (1) 
F1 - P21

>  <ConformerSites upload name>  (1) 
2a - 7g9m/A/704

>  <CanonSites upload name>  (1) 
2 - 7g9m/A/704/1

>  <CrystalformSites upload name>  (1) 
F1b - 7ga1/A/703/1

>  <Quatassemblies upload name>  (1) 
A1 - monomer

>  <Crystalforms upload name>  (1) 
F1 - P21

>  <ConformerSites short tag>  (1) 
2a - 7g9m/A/704

>  <CanonSites short tag>  (1) 
2 - 7g9m/A/704/1

>  <CrystalformSites short tag>  (1) 
F1b - 7ga1/A/703/1

>  <Quatassemblies short tag>  (1) 
A1 - monomer

>  <Crystalforms short tag>  (1) 
F1 - P21

>  <Centroid res>  (1) 
7g9m/A/293/A_v1

>  <Experiment code>  (1) 
7ga1

>  <Pose>  (1) 
7ga1-a

$$$$
8v7u-a
     RDKit          3D

 15 16  0  0  0  0  0  0  0  0999 V2000
  -12.7730    7.6930  -29.0340 C   0  0  2  0  0  0  0  0  0  0  0  0
  -14.0180    9.7390  -29.3980 C   0  0  0  0  0  0  0  0  0  0  0  0
  -15.6770    1.1200  -25.3200 C   0  0  0  0  0  0  0  0  0  0  0  0
  -15.9760    2.1570  -26.3910 C   0  0  0  0  0  0  0  0  0  0  0  0
  -15.8010    3.7350  -27.8570 C   0  0  0  0  0  0  0  0  0  0  0  0
  -13.9560    5.3710  -28.6710 C   0  0  0  0  0  0  0  0  0  0  0  0
  -13.5780    6.5020  -29.6670 C   0  0  0  0  0  0  0  0  0  0  0  0
  -13.1820    7.9550  -27.8170 C   0  0  0  0  0  0  0  0  0  0  0  0
  -13.9820    9.3500  -27.8900 C   0  0  0  0  0  0  0  0  0  0  0  0
  -12.9880    9.0780  -29.9460 C   0  0  0  0  0  0  0  0  0  0  0  0
  -17.1660    2.3920  -26.9330 N   0  0  0  0  0  0  0  0  0  0  0  0
  -15.3130    4.8040  -28.7430 N   0  0  0  0  0  0  0  0  0  0  0  0
  -15.0920    3.0240  -26.9870 N   0  0  0  0  0  0  0  0  0  0  0  0
  -17.0510    3.3480  -27.8160 O   0  0  0  0  0  0  0  0  0  0  0  0
  -13.1740    4.9710  -27.8840 O   0  0  0  0  0  0  0  0  0  0  0  0
  4  3  1  0
  7  6  1  0
  1  7  1  6
  8  1  1  0
  9  8  1  0
  9  2  1  0
 10  2  1  0
 10  1  1  0
 11  4  2  0
 12  6  1  0
 12  5  1  0
 13  5  2  0
 13  4  1  0
 14 11  1  0
 14  5  1  0
 15  6  2  0
M  END
>  <id>  (2) 
10

>  <inchikey>  (2) 
BXPGKHXJBBUYFC-UHFFFAOYSA-N

>  <alias>  (2) 
8v7u-a

>  <smiles>  (2) 
Cc1noc(NC(=O)CC2CCCC2)n1

>  <path>  (2) 
/opt/xchem-fragalysis-2/maxwin/BulkDock/TARGETS/ZIKA_NS3_helicase/aligned_files/8v7u-a/8v7u-a.pdb

>  <distance_score>  (2) 
None

>  <energy_score>  (2) 
None

>  <compound>  (2) 
BXPGKHXJBBUYFC-UHFFFAOYSA-N

>  <compound_id>  (2) 
10

>  <target>  (2) 
ZIKA_NS3_helicase

>  <tags>  (2) 
['[Other] Crystal contact - not trust', '[Other] upload_1 2025-01-30', '[Other] RNA Cleft', 'hits']

>  <inspirations>  (2) 


>  <reference>  (2) 


>  <observation_longname>  (2) 
8v7u_A_812_v1

>  <ConformerSites alias>  (2) 
2a - 7g9m/A/704

>  <CanonSites alias>  (2) 
2 - 7g9m/A/704/1

>  <CrystalformSites alias>  (2) 
F1b - 7ga1/A/703/1

>  <Quatassemblies alias>  (2) 
A1 - monomer

>  <Crystalforms alias>  (2) 
F1 - P21

>  <ConformerSites upload name>  (2) 
2a - 7g9m/A/704

>  <CanonSites upload name>  (2) 
2 - 7g9m/A/704/1

>  <CrystalformSites upload name>  (2) 
F1b - 7ga1/A/703/1

>  <Quatassemblies upload name>  (2) 
A1 - monomer

>  <Crystalforms upload name>  (2) 
F1 - P21

>  <ConformerSites short tag>  (2) 
2a - 7g9m/A/704

>  <CanonSites short tag>  (2) 
2 - 7g9m/A/704/1

>  <CrystalformSites short tag>  (2) 
F1b - 7ga1/A/703/1

>  <Quatassemblies short tag>  (2) 
A1 - monomer

>  <Crystalforms short tag>  (2) 
F1 - P21

>  <Centroid res>  (2) 
7g9m/A/293/A_v1

>  <Experiment code>  (2) 
8v7u

>  <Pose>  (2) 
8v7u-a

$$$$
7g9m-a
     RDKit          3D

 17 18  0  0  0  0  0  0  0  0999 V2000
  -19.7110    4.2590  -26.5140 N   0  0  0  0  0  0  0  0  0  0  0  0
  -15.7660    6.6330  -27.9150 N   0  0  0  0  0  0  0  0  0  0  0  0
  -18.5270    6.0440  -27.7890 C   0  0  0  0  0  0  0  0  0  0  0  0
  -19.2500    4.7120  -27.8330 C   0  0  0  0  0  0  0  0  0  0  0  0
  -16.3290    6.4830  -26.6710 C   0  0  0  0  0  0  0  0  0  0  0  0
  -14.5390    7.2730  -28.2050 C   0  0  0  0  0  0  0  0  0  0  0  0
  -13.7770    6.7940  -29.2590 C   0  0  0  0  0  0  0  0  0  0  0  0
  -12.0700    8.3430  -28.7340 C   0  0  0  0  0  0  0  0  0  0  0  0
  -21.0420    3.6610  -26.6120 C   0  0  0  0  0  0  0  0  0  0  0  0
  -19.6850    5.3230  -25.5050 C   0  0  0  0  0  0  0  0  0  0  0  0
  -18.2920    5.8930  -25.3380 C   0  0  0  0  0  0  0  0  0  0  0  0
  -17.6410    6.1310  -26.6280 N   0  0  0  0  0  0  0  0  0  0  0  0
  -15.6940    6.6860  -25.6370 O   0  0  0  0  0  0  0  0  0  0  0  0
  -12.5440    7.3500  -29.5440 C   0  0  0  0  0  0  0  0  0  0  0  0
  -12.7480    8.7790  -27.6300 C   0  0  0  0  0  0  0  0  0  0  0  0
  -13.9850    8.2210  -27.3530 C   0  0  0  0  0  0  0  0  0  0  0  0
  -10.8450    8.8730  -29.0060 F   0  0  0  0  0  0  0  0  0  0  0  0
  4  1  1  0
  4  3  1  0
  5  2  1  0
  6  2  1  0
  7  6  2  0
  9  1  1  0
 10  1  1  0
 11 10  1  0
 12  3  1  0
 12 11  1  0
 12  5  1  0
 13  5  2  0
 14  8  2  0
 14  7  1  0
 15  8  1  0
 16 15  2  0
 16  6  1  0
 17  8  1  0
M  END
>  <id>  (3) 
15

>  <inchikey>  (3) 
MDBPFVSVLGYVCQ-UHFFFAOYSA-N

>  <alias>  (3) 
7g9m-a

>  <smiles>  (3) 
CN1CCN(C(=O)Nc2ccc(F)cc2)CC1

>  <path>  (3) 
/opt/xchem-fragalysis-2/maxwin/BulkDock/TARGETS/ZIKA_NS3_helicase/aligned_files/7g9m-a/7g9m-a.pdb

>  <distance_score>  (3) 
None

>  <energy_score>  (3) 
None

>  <compound>  (3) 
MDBPFVSVLGYVCQ-UHFFFAOYSA-N

>  <compound_id>  (3) 
15

>  <target>  (3) 
ZIKA_NS3_helicase

>  <tags>  (3) 
['[Other] Crystal contact - not trust', '[Other] upload_1 2025-01-30', '[Other] RNA Cleft', 'hits']

>  <inspirations>  (3) 


>  <reference>  (3) 


>  <observation_longname>  (3) 
7g9m_A_704_v1

>  <ConformerSites alias>  (3) 
2a - 7g9m/A/704

>  <CanonSites alias>  (3) 
2 - 7g9m/A/704/1

>  <CrystalformSites alias>  (3) 
F1b - 7ga1/A/703/1

>  <Quatassemblies alias>  (3) 
A1 - monomer

>  <Crystalforms alias>  (3) 
F1 - P21

>  <ConformerSites upload name>  (3) 
2a - 7g9m/A/704

>  <CanonSites upload name>  (3) 
2 - 7g9m/A/704/1

>  <CrystalformSites upload name>  (3) 
F1b - 7ga1/A/703/1

>  <Quatassemblies upload name>  (3) 
A1 - monomer

>  <Crystalforms upload name>  (3) 
F1 - P21

>  <ConformerSites short tag>  (3) 
2a - 7g9m/A/704

>  <CanonSites short tag>  (3) 
2 - 7g9m/A/704/1

>  <CrystalformSites short tag>  (3) 
F1b - 7ga1/A/703/1

>  <Quatassemblies short tag>  (3) 
A1 - monomer

>  <Crystalforms short tag>  (3) 
F1 - P21

>  <Centroid res>  (3) 
7g9m/A/293/A_v1

>  <Experiment code>  (3) 
7g9m

>  <Pose>  (3) 
7g9m-a

$$$$
8um3-a
     RDKit          3D

  9 10  0  0  0  0  0  0  0  0999 V2000
  -16.7560    8.8680  -18.0320 N   0  0  0  0  0  0  0  0  0  0  0  0
  -15.2660    9.9660  -19.0350 N   0  0  0  0  0  0  0  0  0  0  0  0
  -14.0010   11.0750  -20.4520 C   0  0  0  0  0  0  0  0  0  0  0  0
  -14.0580   10.5230  -19.2780 N   0  0  0  0  0  0  0  0  0  0  0  0
  -15.5330    9.2940  -17.8950 N   0  0  0  0  0  0  0  0  0  0  0  0
  -17.2900    9.2530  -19.2210 N   0  0  0  0  0  0  0  0  0  0  0  0
  -16.3420    9.9410  -19.8380 C   0  0  0  0  0  0  0  0  0  0  0  0
  -16.2400   10.5750  -21.1030 C   0  0  0  0  0  0  0  0  0  0  0  0
  -15.0520   11.1450  -21.4140 C   0  0  0  0  0  0  0  0  0  0  0  0
  4  2  1  0
  4  3  2  0
  5  1  2  0
  5  2  1  0
  6  1  1  0
  7  6  2  0
  7  2  1  0
  8  7  1  0
  9  8  2  0
  9  3  1  0
M  END
>  <id>  (4) 
17

>  <inchikey>  (4) 
LWFUGGGWLUMXQZ-UHFFFAOYSA-N

>  <alias>  (4) 
8um3-a

>  <smiles>  (4) 
c1cnn2nnnc2c1

>  <path>  (4) 
/opt/xchem-fragalysis-2/maxwin/BulkDock/TARGETS/ZIKA_NS3_helicase/aligned_files/8um3-a/8um3-a.pdb

>  <distance_score>  (4) 
None

>  <energy_score>  (4) 
None

>  <compound>  (4) 
LWFUGGGWLUMXQZ-UHFFFAOYSA-N

>  <compound_id>  (4) 
17

>  <target>  (4) 
ZIKA_NS3_helicase

>  <tags>  (4) 
['hits', '[Other] upload_1 2025-01-30', '[Other] RNA Cleft', '[Other] Crystal contact - not trust', '[Other] Covalent to Cys262']

>  <inspirations>  (4) 


>  <reference>  (4) 


>  <observation_longname>  (4) 
8um3_A_705_v1

>  <ConformerSites alias>  (4) 
15a - 8um3/A/705

>  <CanonSites alias>  (4) 
15 - 8um3/A/705/1

>  <CrystalformSites alias>  (4) 
F1q - 8um3/A/705/1

>  <Quatassemblies alias>  (4) 
A1 - monomer

>  <Crystalforms alias>  (4) 
F1 - P21

>  <ConformerSites upload name>  (4) 
15a - 8um3/A/705

>  <CanonSites upload name>  (4) 
15 - 8um3/A/705/1

>  <CrystalformSites upload name>  (4) 
F1q - 8um3/A/705/1

>  <Quatassemblies upload name>  (4) 
A1 - monomer

>  <Crystalforms upload name>  (4) 
F1 - P21

>  <ConformerSites short tag>  (4) 
15a - 8um3/A/705

>  <CanonSites short tag>  (4) 
15 - 8um3/A/705/1

>  <CrystalformSites short tag>  (4) 
F1q - 8um3/A/705/1

>  <Quatassemblies short tag>  (4) 
A1 - monomer

>  <Crystalforms short tag>  (4) 
F1 - P21

>  <Centroid res>  (4) 
8um3/A/225/A_v1

>  <Experiment code>  (4) 
8um3

>  <Pose>  (4) 
8um3-a

$$$$
7g9t-a
     RDKit          3D

 14 14  0  0  0  0  0  0  0  0999 V2000
  -15.2590    4.9570  -28.2160 N   0  0  0  0  0  0  0  0  0  0  0  0
  -14.1680    5.7430  -28.2390 C   0  0  0  0  0  0  0  0  0  0  0  0
  -14.3330    7.1510  -28.7940 C   0  0  1  0  0  0  0  0  0  0  0  0
  -14.2370    8.2460  -27.7260 C   0  0  0  0  0  0  0  0  0  0  0  0
  -14.5110    9.6430  -28.2960 C   0  0  0  0  0  0  0  0  0  0  0  0
  -13.9890    9.8420  -29.7170 C   0  0  0  0  0  0  0  0  0  0  0  0
  -13.3290    7.3970  -29.9280 C   0  0  0  0  0  0  0  0  0  0  0  0
  -16.0000    1.2200  -25.2660 C   0  0  0  0  0  0  0  0  0  0  0  0
  -15.5740    1.7720  -26.5360 O   0  0  0  0  0  0  0  0  0  0  0  0
  -15.7370    3.0840  -26.7080 C   0  0  0  0  0  0  0  0  0  0  0  0
  -16.2220    3.8220  -25.8970 O   0  0  0  0  0  0  0  0  0  0  0  0
  -15.1790    3.5250  -28.0320 C   0  0  0  0  0  0  0  0  0  0  0  0
  -13.0670    5.3170  -27.8780 O   0  0  0  0  0  0  0  0  0  0  0  0
  -12.8810    8.8580  -30.0560 C   0  0  0  0  0  0  0  0  0  0  0  0
  2  1  1  0
  3  2  1  1
  4  3  1  0
  5  4  1  0
  6  5  1  0
  7  3  1  0
  9  8  1  0
 10  9  1  0
 11 10  2  0
 12  1  1  0
 12 10  1  0
 13  2  2  0
 14  7  1  0
 14  6  1  0
M  END
>  <id>  (5) 
19

>  <inchikey>  (5) 
ANWVRESNPYHPKG-UHFFFAOYSA-N

>  <alias>  (5) 
7g9t-a

>  <smiles>  (5) 
COC(=O)CNC(=O)C1CCCCC1

>  <path>  (5) 
/opt/xchem-fragalysis-2/maxwin/BulkDock/TARGETS/ZIKA_NS3_helicase/aligned_files/7g9t-a/7g9t-a.pdb

>  <distance_score>  (5) 
None

>  <energy_score>  (5) 
None

>  <compound>  (5) 
ANWVRESNPYHPKG-UHFFFAOYSA-N

>  <compound_id>  (5) 
19

>  <target>  (5) 
ZIKA_NS3_helicase

>  <tags>  (5) 
['[Other] Crystal contact - not trust', '[Other] upload_1 2025-01-30', '[Other] RNA Cleft', 'hits']

>  <inspirations>  (5) 


>  <reference>  (5) 


>  <observation_longname>  (5) 
7g9t_A_704_v1

>  <ConformerSites alias>  (5) 
2a - 7g9m/A/704

>  <CanonSites alias>  (5) 
2 - 7g9m/A/704/1

>  <CrystalformSites alias>  (5) 
F1b - 7ga1/A/703/1

>  <Quatassemblies alias>  (5) 
A1 - monomer

>  <Crystalforms alias>  (5) 
F1 - P21

>  <ConformerSites upload name>  (5) 
2a - 7g9m/A/704

>  <CanonSites upload name>  (5) 
2 - 7g9m/A/704/1

>  <CrystalformSites upload name>  (5) 
F1b - 7ga1/A/703/1

>  <Quatassemblies upload name>  (5) 
A1 - monomer

>  <Crystalforms upload name>  (5) 
F1 - P21

>  <ConformerSites short tag>  (5) 
2a - 7g9m/A/704

>  <CanonSites short tag>  (5) 
2 - 7g9m/A/704/1

>  <CrystalformSites short tag>  (5) 
F1b - 7ga1/A/703/1

>  <Quatassemblies short tag>  (5) 
A1 - monomer

>  <Crystalforms short tag>  (5) 
F1 - P21

>  <Centroid res>  (5) 
7g9m/A/293/A_v1

>  <Experiment code>  (5) 
7g9t

>  <Pose>  (5) 
7g9t-a

$$$$
5rhg-a
     RDKit          3D

 14 14  0  0  0  0  0  0  0  0999 V2000
  -14.9860   10.3940  -25.6620 N   0  0  0  0  0  0  0  0  0  0  0  0
  -14.4640    8.1280  -29.2200 C   0  0  0  0  0  0  0  0  0  0  0  0
  -13.3560    8.7930  -28.6630 C   0  0  0  0  0  0  0  0  0  0  0  0
  -11.9810    8.6850  -29.2700 C   0  0  0  0  0  0  0  0  0  0  0  0
  -13.5180    9.5560  -27.4890 C   0  0  0  0  0  0  0  0  0  0  0  0
  -14.7690    9.6580  -26.8620 C   0  0  0  0  0  0  0  0  0  0  0  0
  -14.9550   12.0930  -23.9040 C   0  0  0  0  0  0  0  0  0  0  0  0
  -17.9740    7.9960  -26.6940 C   0  0  0  0  0  0  0  0  0  0  0  0
  -15.8690    8.9770  -27.4160 C   0  0  0  0  0  0  0  0  0  0  0  0
  -15.7190    8.2200  -28.5900 C   0  0  0  0  0  0  0  0  0  0  0  0
  -14.5110   11.6540  -25.3090 C   0  0  0  0  0  0  0  0  0  0  0  0
  -14.5090   13.4540  -23.6770 N   0  0  0  0  0  0  0  0  0  0  0  0
  -17.0780    9.1080  -26.6950 O   0  0  0  0  0  0  0  0  0  0  0  0
  -13.8360   12.3830  -25.9910 O   0  0  0  0  0  0  0  0  0  0  0  0
  3  2  2  0
  4  3  1  0
  5  3  1  0
  6  5  2  0
  6  1  1  0
  9  6  1  0
 10  9  2  0
 10  2  1  0
 11  1  1  0
 11  7  1  0
 12  7  1  0
 13  8  1  0
 13  9  1  0
 14 11  2  0
M  END
>  <id>  (6) 
21

>  <inchikey>  (6) 
SRFLDWOWAGQZAD-UHFFFAOYSA-N

>  <alias>  (6) 
5rhg-a

>  <smiles>  (6) 
COc1ccc(C)cc1NC(=O)CN

>  <path>  (6) 
/opt/xchem-fragalysis-2/maxwin/BulkDock/TARGETS/ZIKA_NS3_helicase/aligned_files/5rhg-a/5rhg-a.pdb

>  <distance_score>  (6) 
None

>  <energy_score>  (6) 
None

>  <compound>  (6) 
SRFLDWOWAGQZAD-UHFFFAOYSA-N

>  <compound_id>  (6) 
20

>  <target>  (6) 
ZIKA_NS3_helicase

>  <tags>  (6) 
['[Other] Crystal contact - not trust', '[Other] upload_1 2025-01-30', '[Other] RNA Cleft', 'hits']

>  <inspirations>  (6) 


>  <reference>  (6) 


>  <observation_longname>  (6) 
5rhg_A_704_v1

>  <ConformerSites alias>  (6) 
2a - 7g9m/A/704

>  <CanonSites alias>  (6) 
2 - 7g9m/A/704/1

>  <CrystalformSites alias>  (6) 
F1b - 7ga1/A/703/1

>  <Quatassemblies alias>  (6) 
A1 - monomer

>  <Crystalforms alias>  (6) 
F1 - P21

>  <ConformerSites upload name>  (6) 
2a - 7g9m/A/704

>  <CanonSites upload name>  (6) 
2 - 7g9m/A/704/1

>  <CrystalformSites upload name>  (6) 
F1b - 7ga1/A/703/1

>  <Quatassemblies upload name>  (6) 
A1 - monomer

>  <Crystalforms upload name>  (6) 
F1 - P21

>  <ConformerSites short tag>  (6) 
2a - 7g9m/A/704

>  <CanonSites short tag>  (6) 
2 - 7g9m/A/704/1

>  <CrystalformSites short tag>  (6) 
F1b - 7ga1/A/703/1

>  <Quatassemblies short tag>  (6) 
A1 - monomer

>  <Crystalforms short tag>  (6) 
F1 - P21

>  <Centroid res>  (6) 
7g9m/A/293/A_v1

>  <Experiment code>  (6) 
5rhg

>  <Pose>  (6) 
5rhg-a

$$$$
7ga2-a
     RDKit          3D

 14 14  0  0  0  0  0  0  0  0999 V2000
  -14.4370   10.2110  -31.9560 C   0  0  0  0  0  0  0  0  0  0  0  0
  -13.1040    7.6620  -30.3850 C   0  0  0  0  0  0  0  0  0  0  0  0
  -13.3200    6.4160  -29.5650 C   0  0  0  0  0  0  0  0  0  0  0  0
  -13.8430    6.9290  -28.2480 C   0  0  0  0  0  0  0  0  0  0  0  0
  -13.9620    8.6700  -29.7310 N   0  0  0  0  0  0  0  0  0  0  0  0
  -12.2000    8.8040  -27.8750 C   0  0  0  0  0  0  0  0  0  0  0  0
  -15.5160    8.3750  -26.8450 O   0  0  0  0  0  0  0  0  0  0  0  0
  -13.6290    8.4500  -28.2990 C   0  0  2  0  0  0  0  0  0  0  0  0
  -14.5850    9.1830  -27.3460 C   0  0  0  0  0  0  0  0  0  0  0  0
  -16.2990    8.8950  -25.7400 C   0  0  0  0  0  0  0  0  0  0  0  0
  -14.4720   10.3470  -27.0690 O   0  0  0  0  0  0  0  0  0  0  0  0
  -12.5070   10.5780  -30.3200 O   0  0  0  0  0  0  0  0  0  0  0  0
  -14.8180   10.9800  -29.5160 O   0  0  0  0  0  0  0  0  0  0  0  0
  -13.8920   10.2060  -30.2940 S   0  0  1  0  0  0  0  0  0  0  0  0
  3  2  1  0
  4  3  1  0
  5  2  1  0
  8  6  1  6
  8  5  1  0
  8  4  1  0
  9  8  1  0
  9  7  1  0
 10  7  1  0
 11  9  2  0
 14 12  2  0
 14  5  1  0
 14  1  1  6
 14 13  2  0
M  END
>  <id>  (7) 
27

>  <inchikey>  (7) 
APDJGJFQSBOQHM-MRVPVSSYSA-N

>  <alias>  (7) 
7ga2-a

>  <smiles>  (7) 
COC(=O)[C@@]1(C)CCCN1S(C)(=O)=O

>  <path>  (7) 
/opt/xchem-fragalysis-2/maxwin/BulkDock/TARGETS/ZIKA_NS3_helicase/aligned_files/7ga2-a/7ga2-a.pdb

>  <distance_score>  (7) 
None

>  <energy_score>  (7) 
None

>  <compound>  (7) 
APDJGJFQSBOQHM-UHFFFAOYSA-N

>  <compound_id>  (7) 
26

>  <target>  (7) 
ZIKA_NS3_helicase

>  <tags>  (7) 
['[Other] Crystal contact - not trust', '[Other] upload_1 2025-01-30', '[Other] RNA Cleft', 'hits']

>  <inspirations>  (7) 


>  <reference>  (7) 


>  <observation_longname>  (7) 
7ga2_A_704_v1

>  <ConformerSites alias>  (7) 
2a - 7g9m/A/704

>  <CanonSites alias>  (7) 
2 - 7g9m/A/704/1

>  <CrystalformSites alias>  (7) 
F1b - 7ga1/A/703/1

>  <Quatassemblies alias>  (7) 
A1 - monomer

>  <Crystalforms alias>  (7) 
F1 - P21

>  <ConformerSites upload name>  (7) 
2a - 7g9m/A/704

>  <CanonSites upload name>  (7) 
2 - 7g9m/A/704/1

>  <CrystalformSites upload name>  (7) 
F1b - 7ga1/A/703/1

>  <Quatassemblies upload name>  (7) 
A1 - monomer

>  <Crystalforms upload name>  (7) 
F1 - P21

>  <ConformerSites short tag>  (7) 
2a - 7g9m/A/704

>  <CanonSites short tag>  (7) 
2 - 7g9m/A/704/1

>  <CrystalformSites short tag>  (7) 
F1b - 7ga1/A/703/1

>  <Quatassemblies short tag>  (7) 
A1 - monomer

>  <Crystalforms short tag>  (7) 
F1 - P21

>  <Centroid res>  (7) 
7g9m/A/293/A_v1

>  <Experiment code>  (7) 
7ga2

>  <Pose>  (7) 
7ga2-a

$$$$
7ga3-a
     RDKit          3D

  7  7  0  0  0  0  0  0  0  0999 V2000
  -25.5680    3.1080  -27.5840 C   0  0  1  0  0  0  0  0  0  0  0  0
  -24.6540    3.9360  -28.4970 C   0  0  0  0  0  0  0  0  0  0  0  0
  -25.7930    2.0160  -28.6350 C   0  0  0  0  0  0  0  0  0  0  0  0
  -25.0570    2.7270  -26.3280 O   0  0  0  0  0  0  0  0  0  0  0  0
  -25.3350    3.1510  -29.9680 S   0  0  2  0  0  0  0  0  0  0  0  0
  -24.3540    2.5730  -30.8400 O   0  0  0  0  0  0  0  0  0  0  0  0
  -26.4390    3.8620  -30.5480 O   0  0  0  0  0  0  0  0  0  0  0  0
  2  1  1  0
  3  1  1  0
  1  4  1  1
  5  3  1  1
  5  2  1  0
  6  5  2  0
  7  5  2  0
M  END
>  <id>  (8) 
28

>  <inchikey>  (8) 
CIUZABLJPXPIFC-UHFFFAOYSA-N

>  <alias>  (8) 
7ga3-a

>  <smiles>  (8) 
O=S1(=O)CC(O)C1

>  <path>  (8) 
/opt/xchem-fragalysis-2/maxwin/BulkDock/TARGETS/ZIKA_NS3_helicase/aligned_files/7ga3-a/7ga3-a.pdb

>  <distance_score>  (8) 
None

>  <energy_score>  (8) 
None

>  <compound>  (8) 
CIUZABLJPXPIFC-UHFFFAOYSA-N

>  <compound_id>  (8) 
27

>  <target>  (8) 
ZIKA_NS3_helicase

>  <tags>  (8) 
['[Other] Crystal contact - not trust', '[Other] upload_1 2025-01-30', '[Other] RNA Cleft', 'hits']

>  <inspirations>  (8) 


>  <reference>  (8) 


>  <observation_longname>  (8) 
7ga3_A_705_v1

>  <ConformerSites alias>  (8) 
2a - 7g9m/A/704

>  <CanonSites alias>  (8) 
2 - 7g9m/A/704/1

>  <CrystalformSites alias>  (8) 
F1c - 7ga3/A/705/1

>  <Quatassemblies alias>  (8) 
A1 - monomer

>  <Crystalforms alias>  (8) 
F1 - P21

>  <ConformerSites upload name>  (8) 
2a - 7g9m/A/704

>  <CanonSites upload name>  (8) 
2 - 7g9m/A/704/1

>  <CrystalformSites upload name>  (8) 
F1c - 7ga3/A/705/1

>  <Quatassemblies upload name>  (8) 
A1 - monomer

>  <Crystalforms upload name>  (8) 
F1 - P21

>  <ConformerSites short tag>  (8) 
2a - 7g9m/A/704

>  <CanonSites short tag>  (8) 
2 - 7g9m/A/704/1

>  <CrystalformSites short tag>  (8) 
F1c - 7ga3/A/705/1

>  <Quatassemblies short tag>  (8) 
A1 - monomer

>  <Crystalforms short tag>  (8) 
F1 - P21

>  <Centroid res>  (8) 
7g9m/A/293/A_v1

>  <Experiment code>  (8) 
7ga3

>  <Pose>  (8) 
7ga3-a

$$$$
8v7r-b
     RDKit          3D

 18 19  0  0  0  0  0  0  0  0999 V2000
  -25.0120    4.7050  -26.5050 C   0  0  0  0  0  0  0  0  0  0  0  0
  -25.5940    2.5920  -27.2900 C   0  0  0  0  0  0  0  0  0  0  0  0
  -20.8040    0.8030  -27.1560 C   0  0  0  0  0  0  0  0  0  0  0  0
  -16.5370    0.3230  -26.0270 C   0  0  0  0  0  0  0  0  0  0  0  0
  -18.4700    1.3210  -27.2970 C   0  0  0  0  0  0  0  0  0  0  0  0
  -18.8040    2.5210  -27.9370 C   0  0  0  0  0  0  0  0  0  0  0  0
  -20.1340    2.8170  -28.2370 C   0  0  0  0  0  0  0  0  0  0  0  0
  -21.0660    1.9620  -27.8550 C   0  0  0  0  0  0  0  0  0  0  0  0
  -22.5170    2.3380  -28.1250 C   0  0  0  0  0  0  0  0  0  0  0  0
  -23.0940    3.3250  -27.0760 C   0  0  0  0  0  0  0  0  0  0  0  0
  -24.5520    3.6160  -27.4960 C   0  0  2  0  0  0  0  0  0  0  0  0
  -26.0400    3.6170  -29.1510 C   0  0  0  0  0  0  0  0  0  0  0  0
  -19.4860    0.4470  -26.8700 C   0  0  0  0  0  0  0  0  0  0  0  0
  -24.8620    4.3840  -28.5880 N   0  0  0  0  0  0  0  0  0  0  0  0
  -26.1140    2.1800  -28.6310 N   0  0  0  0  0  0  0  0  0  0  0  0
  -17.0710    1.1470  -27.0760 O   0  0  0  0  0  0  0  0  0  0  0  0
  -26.2990    3.7380  -30.4700 O   0  0  0  0  0  0  0  0  0  0  0  0
  -25.7330    1.9620  -26.0910 O   0  0  0  0  0  0  0  0  0  0  0  0
  6  5  1  0
  7  6  2  0
  8  7  1  0
  8  3  2  0
  9  8  1  0
 10  9  1  0
 11  2  1  0
 11 10  1  0
 11  1  1  1
 13  5  2  0
 13  3  1  0
 14 12  1  0
 14 11  1  0
 15 12  1  0
 15  2  1  0
 16  5  1  0
 16  4  1  0
 17 12  2  0
 18  2  2  0
M  END
>  <id>  (9) 
37

>  <inchikey>  (9) 
HYRDVXQOZUFAFW-CYBMUJFWSA-N

>  <alias>  (9) 
8v7r-b

>  <smiles>  (9) 
COc1ccc(CC[C@@]2(C)NC(=O)NC2=O)cc1

>  <path>  (9) 
/opt/xchem-fragalysis-2/maxwin/BulkDock/TARGETS/ZIKA_NS3_helicase/aligned_files/8v7r-b/8v7r-b.pdb

>  <distance_score>  (9) 
None

>  <energy_score>  (9) 
None

>  <compound>  (9) 
HYRDVXQOZUFAFW-UHFFFAOYSA-N

>  <compound_id>  (9) 
35

>  <target>  (9) 
ZIKA_NS3_helicase

>  <tags>  (9) 
['[Other] Crystal contact - not trust', '[Other] upload_1 2025-01-30', '[Other] RNA Cleft', 'hits']

>  <inspirations>  (9) 


>  <reference>  (9) 


>  <observation_longname>  (9) 
8v7r_A_703_v1

>  <ConformerSites alias>  (9) 
2a - 7g9m/A/704

>  <CanonSites alias>  (9) 
2 - 7g9m/A/704/1

>  <CrystalformSites alias>  (9) 
F1c - 7ga3/A/705/1

>  <Quatassemblies alias>  (9) 
A1 - monomer

>  <Crystalforms alias>  (9) 
F1 - P21

>  <ConformerSites upload name>  (9) 
2a - 7g9m/A/704

>  <CanonSites upload name>  (9) 
2 - 7g9m/A/704/1

>  <CrystalformSites upload name>  (9) 
F1c - 7ga3/A/705/1

>  <Quatassemblies upload name>  (9) 
A1 - monomer

>  <Crystalforms upload name>  (9) 
F1 - P21

>  <ConformerSites short tag>  (9) 
2a - 7g9m/A/704

>  <CanonSites short tag>  (9) 
2 - 7g9m/A/704/1

>  <CrystalformSites short tag>  (9) 
F1c - 7ga3/A/705/1

>  <Quatassemblies short tag>  (9) 
A1 - monomer

>  <Crystalforms short tag>  (9) 
F1 - P21

>  <Centroid res>  (9) 
7g9m/A/293/A_v1

>  <Experiment code>  (9) 
8v7r

>  <Pose>  (9) 
8v7r-b

$$$$
7g9y-a
     RDKit          3D

 14 15  0  0  0  0  0  0  0  0999 V2000
  -15.6190    8.6560  -28.3170 N   0  0  0  0  0  0  0  0  0  0  0  0
  -18.5700    4.7680  -28.6430 N   0  0  0  0  0  0  0  0  0  0  0  0
  -13.3680    9.7320  -29.8130 C   0  0  0  0  0  0  0  0  0  0  0  0
  -14.6500    7.8380  -28.7420 C   0  0  0  0  0  0  0  0  0  0  0  0
  -16.8470    8.1770  -28.1480 C   0  0  0  0  0  0  0  0  0  0  0  0
  -17.1230    6.7840  -28.4360 C   0  0  0  0  0  0  0  0  0  0  0  0
  -16.0530    5.9990  -28.8490 C   0  0  0  0  0  0  0  0  0  0  0  0
  -17.3690    3.9830  -28.3300 C   0  0  0  0  0  0  0  0  0  0  0  0
  -12.6160    8.8200  -27.6280 C   0  0  0  0  0  0  0  0  0  0  0  0
  -13.2570    8.4550  -28.9700 C   0  0  2  0  0  0  0  0  0  0  0  0
  -12.2990    7.5040  -29.6950 C   0  0  0  0  0  0  0  0  0  0  0  0
  -14.8200    6.5310  -28.9760 N   0  0  0  0  0  0  0  0  0  0  0  0
  -16.2070    4.5290  -29.1230 C   0  0  0  0  0  0  0  0  0  0  0  0
  -18.4760    6.1560  -28.2100 C   0  0  0  0  0  0  0  0  0  0  0  0
  4  1  2  0
  5  1  1  0
  6  5  2  0
  7  6  1  0
  8  2  1  0
 10  9  1  1
 10  4  1  0
 10  3  1  0
 11 10  1  0
 12  7  2  0
 12  4  1  0
 13  8  1  0
 13  7  1  0
 14  2  1  0
 14  6  1  0
M  END
>  <id>  (10) 
40

>  <inchikey>  (10) 
TXNXUFABOGCLLO-UHFFFAOYSA-N

>  <alias>  (10) 
7g9y-a

>  <smiles>  (10) 
CC(C)(C)c1ncc2c(n1)CCNC2

>  <path>  (10) 
/opt/xchem-fragalysis-2/maxwin/BulkDock/TARGETS/ZIKA_NS3_helicase/aligned_files/7g9y-a/7g9y-a.pdb

>  <distance_score>  (10) 
None

>  <energy_score>  (10) 
None

>  <compound>  (10) 
TXNXUFABOGCLLO-UHFFFAOYSA-N

>  <compound_id>  (10) 
38

>  <target>  (10) 
ZIKA_NS3_helicase

>  <tags>  (10) 
['[Other] Crystal contact - not trust', '[Other] upload_1 2025-01-30', '[Other] RNA Cleft', 'hits']

>  <inspirations>  (10) 


>  <reference>  (10) 


>  <observation_longname>  (10) 
7g9y_A_703_v1

>  <ConformerSites alias>  (10) 
2a - 7g9m/A/704

>  <CanonSites alias>  (10) 
2 - 7g9m/A/704/1

>  <CrystalformSites alias>  (10) 
F1b - 7ga1/A/703/1

>  <Quatassemblies alias>  (10) 
A1 - monomer

>  <Crystalforms alias>  (10) 
F1 - P21

>  <ConformerSites upload name>  (10) 
2a - 7g9m/A/704

>  <CanonSites upload name>  (10) 
2 - 7g9m/A/704/1

>  <CrystalformSites upload name>  (10) 
F1b - 7ga1/A/703/1

>  <Quatassemblies upload name>  (10) 
A1 - monomer

>  <Crystalforms upload name>  (10) 
F1 - P21

>  <ConformerSites short tag>  (10) 
2a - 7g9m/A/704

>  <CanonSites short tag>  (10) 
2 - 7g9m/A/704/1

>  <CrystalformSites short tag>  (10) 
F1b - 7ga1/A/703/1

>  <Quatassemblies short tag>  (10) 
A1 - monomer

>  <Crystalforms short tag>  (10) 
F1 - P21

>  <Centroid res>  (10) 
7g9m/A/293/A_v1

>  <Experiment code>  (10) 
7g9y

>  <Pose>  (10) 
7g9y-a

$$$$
7g9k-a
     RDKit          3D

 13 13  0  0  0  0  0  0  0  0999 V2000
  -20.8440    2.2800  -27.7220 N   0  0  0  0  0  0  0  0  0  0  0  0
  -21.3220    3.3770  -26.8750 C   0  0  0  0  0  0  0  0  0  0  0  0
  -21.8940    1.8110  -28.6270 C   0  0  0  0  0  0  0  0  0  0  0  0
  -23.1120    1.3590  -27.8480 C   0  0  0  0  0  0  0  0  0  0  0  0
  -23.5750    2.4640  -27.0090 N   0  0  0  0  0  0  0  0  0  0  0  0
  -25.5570    3.1450  -29.5400 C   0  0  1  0  0  0  0  0  0  0  0  0
  -25.5980    2.9570  -26.1860 O   0  0  0  0  0  0  0  0  0  0  0  0
  -25.0760    3.9000  -28.3120 C   0  0  0  0  0  0  0  0  0  0  0  0
  -24.7920    3.0310  -27.1080 C   0  0  0  0  0  0  0  0  0  0  0  0
  -22.5460    2.9520  -26.0880 C   0  0  0  0  0  0  0  0  0  0  0  0
  -26.3340    2.1010  -29.2160 F   0  0  0  0  0  0  0  0  0  0  0  0
  -26.2580    3.9300  -30.3720 F   0  0  0  0  0  0  0  0  0  0  0  0
  -24.5460    2.6540  -30.2710 F   0  0  0  0  0  0  0  0  0  0  0  0
  2  1  1  0
  3  1  1  0
  4  3  1  0
  5  4  1  0
  8  6  1  0
  9  8  1  0
  9  7  2  0
  9  5  1  0
 10  5  1  0
 10  2  1  0
  6 11  1  1
 12  6  1  0
 13  6  1  0
M  END
>  <id>  (11) 
42

>  <inchikey>  (11) 
RUISULBDMIMYAZ-UHFFFAOYSA-N

>  <alias>  (11) 
7g9k-a

>  <smiles>  (11) 
O=C(CC(F)(F)F)N1CCNCC1

>  <path>  (11) 
/opt/xchem-fragalysis-2/maxwin/BulkDock/TARGETS/ZIKA_NS3_helicase/aligned_files/7g9k-a/7g9k-a.pdb

>  <distance_score>  (11) 
None

>  <energy_score>  (11) 
None

>  <compound>  (11) 
RUISULBDMIMYAZ-UHFFFAOYSA-N

>  <compound_id>  (11) 
40

>  <target>  (11) 
ZIKA_NS3_helicase

>  <tags>  (11) 
['[Other] Crystal contact - not trust', '[Other] upload_1 2025-01-30', '[Other] RNA Cleft', 'hits']

>  <inspirations>  (11) 


>  <reference>  (11) 


>  <observation_longname>  (11) 
7g9k_A_705_v1

>  <ConformerSites alias>  (11) 
2a - 7g9m/A/704

>  <CanonSites alias>  (11) 
2 - 7g9m/A/704/1

>  <CrystalformSites alias>  (11) 
F1c - 7ga3/A/705/1

>  <Quatassemblies alias>  (11) 
A1 - monomer

>  <Crystalforms alias>  (11) 
F1 - P21

>  <ConformerSites upload name>  (11) 
2a - 7g9m/A/704

>  <CanonSites upload name>  (11) 
2 - 7g9m/A/704/1

>  <CrystalformSites upload name>  (11) 
F1c - 7ga3/A/705/1

>  <Quatassemblies upload name>  (11) 
A1 - monomer

>  <Crystalforms upload name>  (11) 
F1 - P21

>  <ConformerSites short tag>  (11) 
2a - 7g9m/A/704

>  <CanonSites short tag>  (11) 
2 - 7g9m/A/704/1

>  <CrystalformSites short tag>  (11) 
F1c - 7ga3/A/705/1

>  <Quatassemblies short tag>  (11) 
A1 - monomer

>  <Crystalforms short tag>  (11) 
F1 - P21

>  <Centroid res>  (11) 
7g9m/A/293/A_v1

>  <Experiment code>  (11) 
7g9k

>  <Pose>  (11) 
7g9k-a

$$$$
