7g9t_A_704_1_7g9m+A+704+1__LIG
     RDKit          3D

 14 14  0  0  0  0  0  0  0  0999 V2000
  -15.2590    4.9570  -28.2160 N   0  0  0  0  0  0  0  0  0  0  0  0
  -14.1680    5.7430  -28.2390 C   0  0  0  0  0  0  0  0  0  0  0  0
  -14.3330    7.1510  -28.7940 C   0  0  0  0  0  0  0  0  0  0  0  0
  -14.2370    8.2460  -27.7260 C   0  0  0  0  0  0  0  0  0  0  0  0
  -14.5110    9.6430  -28.2960 C   0  0  0  0  0  0  0  0  0  0  0  0
  -13.9890    9.8420  -29.7170 C   0  0  0  0  0  0  0  0  0  0  0  0
  -13.3290    7.3970  -29.9280 C   0  0  0  0  0  0  0  0  0  0  0  0
  -16.0000    1.2200  -25.2660 C   0  0  0  0  0  0  0  0  0  0  0  0
  -15.5740    1.7720  -26.5360 O   0  0  0  0  0  0  0  0  0  0  0  0
  -15.7370    3.0840  -26.7080 C   0  0  0  0  0  0  0  0  0  0  0  0
  -16.2220    3.8220  -25.8970 O   0  0  0  0  0  0  0  0  0  0  0  0
  -15.1790    3.5250  -28.0320 C   0  0  0  0  0  0  0  0  0  0  0  0
  -13.0670    5.3170  -27.8780 O   0  0  0  0  0  0  0  0  0  0  0  0
  -12.8810    8.8580  -30.0560 C   0  0  0  0  0  0  0  0  0  0  0  0
 14  7  1  0
 14  6  1  0
  7  3  1  0
  6  5  1  0
  3  2  1  0
  3  4  1  0
  5  4  1  0
  2  1  1  0
  2 13  2  0
  1 12  1  0
 12 10  1  0
 10  9  1  0
 10 11  2  0
  9  8  1  0
M  END
$$$$
