7ga0_A_705_1_5rhm+A+705+1__LIG
     RDKit          3D

 16 17  0  0  0  0  0  0  0  0999 V2000
  -35.0500    8.0730  -47.7300 N   0  0  0  0  0  0  0  0  0  0  0  0
  -39.7110    7.7920  -48.4350 N   0  0  0  0  0  0  0  0  0  0  0  0
  -34.0070    6.6990  -44.4820 C   0  0  0  0  0  0  0  0  0  0  0  0
  -36.1170    7.2890  -47.3190 C   0  0  0  0  0  0  0  0  0  0  0  0
  -37.4500    6.9840  -47.9250 C   0  0  2  0  0  0  0  0  0  0  0  0
  -37.3770    6.3010  -49.2850 C   0  0  0  0  0  0  0  0  0  0  0  0
  -38.7720    5.9270  -49.7820 C   0  0  0  0  0  0  0  0  0  0  0  0
  -38.3670    8.1930  -47.9840 C   0  0  0  0  0  0  0  0  0  0  0  0
  -34.8960    8.8490  -48.9560 C   0  0  0  0  0  0  0  0  0  0  0  0
  -34.0710    7.9450  -46.7770 C   0  0  0  0  0  0  0  0  0  0  0  0
  -34.5690    7.1640  -45.7770 C   0  0  0  0  0  0  0  0  0  0  0  0
  -32.7070    6.9480  -44.3540 F   0  0  0  0  0  0  0  0  0  0  0  0
  -34.5950    7.2730  -43.4390 F   0  0  0  0  0  0  0  0  0  0  0  0
  -34.1720    5.3920  -44.3370 F   0  0  0  0  0  0  0  0  0  0  0  0
  -35.8360    6.7480  -46.1300 N   0  0  0  0  0  0  0  0  0  0  0  0
  -39.6830    7.1430  -49.7570 C   0  0  0  0  0  0  0  0  0  0  0  0
  7 16  1  0
  7  6  1  0
 16  2  1  0
  6  5  1  0
  9  1  1  0
  2  8  1  0
  8  5  1  0
  5  4  1  6
  1  4  1  0
  1 10  1  0
  4 15  2  0
 10 11  2  0
 15 11  1  0
 11  3  1  0
  3 12  1  0
  3 14  1  0
  3 13  1  0
M  END
$$$$
