5rhi_A_705_1_5rhu+A+705+1__LIG
     RDKit          3D

 16 17  0  0  0  0  0  0  0  0999 V2000
  -12.7960   18.1200  -22.9690 N   0  0  0  0  0  0  0  0  0  0  0  0
  -13.7040   18.2520  -21.8430 C   0  0  0  0  0  0  0  0  0  0  0  0
  -12.2790   21.4380  -20.5950 C   0  0  0  0  0  0  0  0  0  0  0  0
  -13.2370   21.8680  -19.5980 C   0  0  0  0  0  0  0  0  0  0  0  0
  -14.6180   22.0820  -19.6020 C   0  0  0  0  0  0  0  0  0  0  0  0
  -14.9110   22.6560  -18.2850 C   0  0  0  0  0  0  0  0  0  0  0  0
  -12.3630   17.6180  -25.2520 N   0  0  0  0  0  0  0  0  0  0  0  0
  -13.1740   17.4570  -24.1690 C   0  0  0  0  0  0  0  0  0  0  0  0
  -14.1800   16.7310  -24.2090 O   0  0  0  0  0  0  0  0  0  0  0  0
  -11.5330   18.8460  -22.8030 C   0  0  0  0  0  0  0  0  0  0  0  0
  -11.8270   20.3320  -22.7420 C   0  0  0  0  0  0  0  0  0  0  0  0
  -13.9720   19.7530  -21.5670 C   0  0  0  0  0  0  0  0  0  0  0  0
  -13.7010   22.7340  -17.5960 C   0  0  0  0  0  0  0  0  0  0  0  0
  -12.6710   20.5310  -21.5630 N   0  0  0  0  0  0  0  0  0  0  0  0
  -11.1250   21.9190  -20.5650 O   0  0  0  0  0  0  0  0  0  0  0  0
  -12.6660   22.2460  -18.4180 O   0  0  0  0  0  0  0  0  0  0  0  0
  7  8  1  0
  2 12  1  0
  2  1  1  0
  8  1  1  0
  8  9  2  0
 12 14  1  0
  1 10  1  0
  5  6  1  0
  5  4  2  0
 10 11  1  0
  6 13  2  0
 14 11  1  0
 14  3  1  0
  4  3  1  0
  4 16  1  0
 13 16  1  0
  3 15  2  0
M  END
$$$$
