7g9z_A_705_1_5rhu+A+705+1__LIG
     RDKit          3D

 12 13  0  0  0  0  0  0  0  0999 V2000
   -9.0590   23.8010  -20.3330 N   0  0  0  0  0  0  0  0  0  0  0  0
  -12.3380   22.6820  -19.5410 C   0  0  0  0  0  0  0  0  0  0  0  0
  -11.2010   23.3310  -19.1710 C   0  0  0  0  0  0  0  0  0  0  0  0
  -10.3140   23.2970  -20.2400 C   0  0  0  0  0  0  0  0  0  0  0  0
   -8.4620   23.6670  -21.5270 C   0  0  0  0  0  0  0  0  0  0  0  0
   -9.0500   23.0410  -22.6240 C   0  0  0  0  0  0  0  0  0  0  0  0
  -10.9590   22.6600  -21.3050 C   0  0  0  0  0  0  0  0  0  0  0  0
  -13.3730   22.6000  -17.2620 C   0  0  0  0  0  0  0  0  0  0  0  0
  -13.6040   22.4480  -18.7610 C   0  0  0  0  0  0  0  0  0  0  0  0
  -14.7380   23.3670  -19.2160 C   0  0  0  0  0  0  0  0  0  0  0  0
  -10.3080   22.4960  -22.5220 C   0  0  0  0  0  0  0  0  0  0  0  0
  -12.1910   22.2600  -20.8450 N   0  0  0  0  0  0  0  0  0  0  0  0
  6 11  2  0
  6  5  1  0
 11  7  1  0
  5  1  2  0
  7 12  1  0
  7  4  2  0
 12  2  1  0
  1  4  1  0
  4  3  1  0
  2  3  2  0
  2  9  1  0
 10  9  1  0
  9  8  1  0
M  END
$$$$
