7g9n_A_705_1_5rhu+A+705+1__LIG
     RDKit          3D

 17 18  0  0  0  0  0  0  0  0999 V2000
  -14.3060   19.5600  -21.4530 N   0  0  0  0  0  0  0  0  0  0  0  0
  -11.8360   22.0580  -20.3400 N   0  0  0  0  0  0  0  0  0  0  0  0
  -16.4010   18.3330  -21.9910 C   0  0  0  0  0  0  0  0  0  0  0  0
  -14.2510   17.2700  -22.4070 C   0  0  0  0  0  0  0  0  0  0  0  0
  -13.5930   18.2740  -21.4540 C   0  0  0  0  0  0  0  0  0  0  0  0
  -10.6450   22.7990  -20.5100 C   0  0  0  0  0  0  0  0  0  0  0  0
   -9.9310   22.8350  -21.7010 C   0  0  0  0  0  0  0  0  0  0  0  0
   -8.2810   24.1670  -20.6550 C   0  0  0  0  0  0  0  0  0  0  0  0
  -12.0010   20.8600  -22.2620 O   0  0  0  0  0  0  0  0  0  0  0  0
  -12.4160   21.1520  -21.1490 C   0  0  0  0  0  0  0  0  0  0  0  0
  -13.6700   20.5220  -20.5690 C   0  0  0  0  0  0  0  0  0  0  0  0
  -15.7100   19.3560  -21.0770 C   0  0  0  0  0  0  0  0  0  0  0  0
  -15.4750   17.8220  -23.0180 N   0  0  0  0  0  0  0  0  0  0  0  0
   -8.7490   23.5540  -21.7830 C   0  0  0  0  0  0  0  0  0  0  0  0
   -7.1210   24.8720  -20.7300 F   0  0  0  0  0  0  0  0  0  0  0  0
   -8.9460   24.1340  -19.4620 C   0  0  0  0  0  0  0  0  0  0  0  0
  -10.1400   23.4410  -19.3910 C   0  0  0  0  0  0  0  0  0  0  0  0
 13  4  1  0
 13  3  1  0
  9 10  2  0
  4  5  1  0
 14  7  2  0
 14  8  1  0
  3 12  1  0
  7  6  1  0
  1  5  1  0
  1 12  1  0
  1 11  1  0
 10 11  1  0
 10  2  1  0
 15  8  1  0
  8 16  2  0
  6  2  1  0
  6 17  2  0
 16 17  1  0
M  END
$$$$
