5rhr_A_705_1_5rhk+A+705+1__LIG
     RDKit          3D

 10 10  0  0  0  0  0  0  0  0999 V2000
   -1.1100   -7.2060  -34.6620 N   0  0  0  0  0  0  0  0  0  0  0  0
    2.1910   -8.5290  -36.7760 C   0  0  0  0  0  0  0  0  0  0  0  0
    1.6370   -7.1750  -37.2240 C   0  0  0  0  0  0  0  0  0  0  0  0
   -0.4110   -7.3380  -35.8470 C   0  0  0  0  0  0  0  0  0  0  0  0
    0.7410   -5.1500  -35.8340 N   0  0  0  0  0  0  0  0  0  0  0  0
    0.5880   -4.2340  -36.9660 C   0  0  0  0  0  0  0  0  0  0  0  0
   -0.9100   -7.9910  -36.7490 O   0  0  0  0  0  0  0  0  0  0  0  0
    0.9670   -6.6450  -35.9560 C   0  0  0  0  0  0  0  0  0  0  0  0
    1.9260   -7.1160  -34.8420 C   0  0  0  0  0  0  0  0  0  0  0  0
    2.9090   -8.1190  -35.4920 C   0  0  0  0  0  0  0  0  0  0  0  0
  6  5  1  0
  5  8  1  0
  8  9  1  0
  9 10  1  0
 10  2  1  0
  2  3  1  0
  3  8  1  0
  8  4  1  0
  4  7  2  0
  1  4  1  0
M  END
$$$$
