7g9m_A_704_1_7g9m+A+704+1__LIG
     RDKit          3D

 17 18  0  0  0  0  0  0  0  0999 V2000
  -19.7110    4.2590  -26.5140 N   0  0  0  0  0  0  0  0  0  0  0  0
  -15.7660    6.6330  -27.9150 N   0  0  0  0  0  0  0  0  0  0  0  0
  -18.5270    6.0440  -27.7890 C   0  0  0  0  0  0  0  0  0  0  0  0
  -19.2500    4.7120  -27.8330 C   0  0  0  0  0  0  0  0  0  0  0  0
  -16.3290    6.4830  -26.6710 C   0  0  0  0  0  0  0  0  0  0  0  0
  -14.5390    7.2730  -28.2050 C   0  0  0  0  0  0  0  0  0  0  0  0
  -13.7770    6.7940  -29.2590 C   0  0  0  0  0  0  0  0  0  0  0  0
  -12.0700    8.3430  -28.7340 C   0  0  0  0  0  0  0  0  0  0  0  0
  -21.0420    3.6610  -26.6120 C   0  0  0  0  0  0  0  0  0  0  0  0
  -19.6850    5.3230  -25.5050 C   0  0  0  0  0  0  0  0  0  0  0  0
  -18.2920    5.8930  -25.3380 C   0  0  0  0  0  0  0  0  0  0  0  0
  -17.6410    6.1310  -26.6280 N   0  0  0  0  0  0  0  0  0  0  0  0
  -15.6940    6.6860  -25.6370 O   0  0  0  0  0  0  0  0  0  0  0  0
  -12.5440    7.3500  -29.5440 C   0  0  0  0  0  0  0  0  0  0  0  0
  -12.7480    8.7790  -27.6300 C   0  0  0  0  0  0  0  0  0  0  0  0
  -13.9850    8.2210  -27.3530 C   0  0  0  0  0  0  0  0  0  0  0  0
  -10.8450    8.8730  -29.0060 F   0  0  0  0  0  0  0  0  0  0  0  0
 17  8  1  0
 15  8  2  0
 15 16  1  0
  8 14  1  0
 16  6  2  0
 14  7  2  0
  6  7  1  0
  6  2  1  0
  2  5  1  0
  3  4  1  0
  3 12  1  0
  4  1  1  0
  5 12  1  0
  5 13  2  0
 12 11  1  0
 11 10  1  0
  1  9  1  0
  1 10  1  0
M  END
$$$$
