7g9o_A_705_1_5rhu+A+705+1__LIG
     RDKit          3D

 15 16  0  0  0  0  0  0  0  0999 V2000
   -9.2480   23.8310  -20.2030 C   0  0  0  0  0  0  0  0  0  0  0  0
  -10.1880   22.7090  -22.5440 C   0  0  0  0  0  0  0  0  0  0  0  0
  -10.4910   23.2070  -20.2060 C   0  0  0  0  0  0  0  0  0  0  0  0
  -13.8090   21.1370  -19.2830 C   0  0  0  0  0  0  0  0  0  0  0  0
  -13.9540   22.7420  -18.5990 S   0  0  0  0  0  0  0  0  0  0  0  0
  -13.7880   22.6710  -17.1760 O   0  0  0  0  0  0  0  0  0  0  0  0
  -15.1410   23.3400  -19.1360 O   0  0  0  0  0  0  0  0  0  0  0  0
  -12.6700   23.6030  -19.1690 N   0  0  0  0  0  0  0  0  0  0  0  0
  -11.3110   23.0900  -18.9310 C   0  0  2  0  0  0  0  0  0  0  0  0
  -10.6310   23.7220  -17.7120 C   0  0  0  0  0  0  0  0  0  0  0  0
   -9.6590   24.8310  -18.0940 C   0  0  0  0  0  0  0  0  0  0  0  0
   -8.7040   24.3810  -19.0660 O   0  0  0  0  0  0  0  0  0  0  0  0
   -8.4610   23.8610  -21.3470 C   0  0  0  0  0  0  0  0  0  0  0  0
   -8.9540   23.3260  -22.5160 C   0  0  0  0  0  0  0  0  0  0  0  0
  -10.9470   22.6380  -21.3940 C   0  0  0  0  0  0  0  0  0  0  0  0
 12 11  1  0
 12  1  1  0
 13  1  2  0
 13 14  1  0
 11 10  1  0
  1  3  1  0
 14  2  2  0
 10  9  1  0
  3  9  1  0
  3 15  2  0
  2 15  1  0
  9  8  1  6
  8  5  1  0
  4  5  1  0
  5  7  2  0
  5  6  2  0
M  END
$$$$
