5rhp_A_705_1_5rhp+A+705+1__LIG
     RDKit          3D

 15 16  0  0  0  0  0  0  0  0999 V2000
  -41.9450  -10.3130  -37.7900 C   0  0  0  0  0  0  0  0  0  0  0  0
  -40.8910  -11.0150  -38.3660 O   0  0  0  0  0  0  0  0  0  0  0  0
  -40.1140  -11.8770  -37.5710 C   0  0  0  0  0  0  0  0  0  0  0  0
  -40.4830  -12.2760  -36.2610 C   0  0  0  0  0  0  0  0  0  0  0  0
  -39.7530  -13.2440  -35.5920 C   0  0  0  0  0  0  0  0  0  0  0  0
  -38.6560  -13.7910  -36.2510 C   0  0  0  0  0  0  0  0  0  0  0  0
  -37.7740  -14.8010  -35.8540 N   0  0  0  0  0  0  0  0  0  0  0  0
  -36.8050  -14.9780  -36.8640 C   0  0  0  0  0  0  0  0  0  0  0  0
  -37.0790  -14.0690  -37.8790 C   0  0  0  0  0  0  0  0  0  0  0  0
  -36.2550  -13.7690  -39.0580 C   0  0  0  0  0  0  0  0  0  0  0  0
  -35.1080  -12.8310  -38.6830 N   0  0  0  0  0  0  0  0  0  0  0  0
  -35.4630  -11.7770  -37.6780 C   0  0  0  0  0  0  0  0  0  0  0  0
  -34.5380  -12.2020  -39.9160 C   0  0  0  0  0  0  0  0  0  0  0  0
  -38.2530  -13.3460  -37.5300 C   0  0  0  0  0  0  0  0  0  0  0  0
  -38.9910  -12.3820  -38.2020 C   0  0  0  0  0  0  0  0  0  0  0  0
  8  7  1  0
  8  9  2  0
  7  6  1  0
 10  9  1  0
 10 11  1  0
  9 14  1  0
 12 11  1  0
  6 14  2  0
  6  5  1  0
 11 13  1  0
 14 15  1  0
  5  4  2  0
 15  3  2  0
  4  3  1  0
  3  2  1  0
  2  1  1  0
M  END
$$$$
