5rhx_A_705_1_7g9r+A+705+1__LIG
     RDKit          3D

 12 12  0  0  0  0  0  0  0  0999 V2000
    5.0910   28.5300  -12.1450 C   0  0  0  0  0  0  0  0  0  0  0  0
    4.8320   27.1730  -12.3900 C   0  0  0  0  0  0  0  0  0  0  0  0
    5.5770   26.5160  -13.4010 C   0  0  0  0  0  0  0  0  0  0  0  0
    2.2360   27.1580  -11.7120 N   0  0  0  0  0  0  0  0  0  0  0  0
    7.2650   26.4530  -15.2410 C   0  0  0  0  0  0  0  0  0  0  0  0
    3.9780   26.4960  -10.1230 O   0  0  0  0  0  0  0  0  0  0  0  0
    6.5300   27.1890  -14.1650 C   0  0  0  0  0  0  0  0  0  0  0  0
    6.7810   28.5340  -13.9380 C   0  0  0  0  0  0  0  0  0  0  0  0
    6.0590   29.2030  -12.9190 C   0  0  0  0  0  0  0  0  0  0  0  0
    6.3110   30.5090  -12.6690 F   0  0  0  0  0  0  0  0  0  0  0  0
    3.4820   25.0920  -12.0640 O   0  0  0  0  0  0  0  0  0  0  0  0
    3.6370   26.3590  -11.4880 S   0  0  0  0  0  0  0  0  0  0  0  0
  5  7  1  0
  7  8  2  0
  8  9  1  0
 10  9  1  0
  9  1  2  0
  1  2  1  0
  3  2  2  0
  7  3  1  0
  2 12  1  0
  6 12  2  0
 12 11  2  0
  4 12  1  0
M  END
$$$$
