7g9v_A_705_1_5rhk+A+705+1__LIG
     RDKit          3D

 13 14  0  0  0  0  0  0  0  0999 V2000
   -8.2200   -7.0820  -39.8170 N   0  0  0  0  0  0  0  0  0  0  0  0
  -12.0040   -4.2340  -41.2040 N   0  0  0  0  0  0  0  0  0  0  0  0
  -10.4490   -7.3630  -39.0620 C   0  0  0  0  0  0  0  0  0  0  0  0
  -11.7740   -7.0510  -39.0050 C   0  0  0  0  0  0  0  0  0  0  0  0
  -12.2390   -5.9540  -39.7510 C   0  0  0  0  0  0  0  0  0  0  0  0
  -13.4700   -5.3290  -39.9240 C   0  0  0  0  0  0  0  0  0  0  0  0
  -11.3410   -5.2310  -40.5770 C   0  0  0  0  0  0  0  0  0  0  0  0
   -7.0410   -7.1880  -37.7140 C   0  0  0  0  0  0  0  0  0  0  0  0
   -7.7300   -7.8850  -38.8420 C   0  0  0  0  0  0  0  0  0  0  0  0
   -7.8990   -9.0880  -38.8120 O   0  0  0  0  0  0  0  0  0  0  0  0
   -9.5740   -6.6760  -39.9090 C   0  0  0  0  0  0  0  0  0  0  0  0
  -13.3020   -4.3200  -40.7930 N   0  0  0  0  0  0  0  0  0  0  0  0
   -9.9770   -5.5830  -40.6420 C   0  0  0  0  0  0  0  0  0  0  0  0
  8  9  1  0
  9 10  2  0
  9  1  1  0
  1 11  1  0
 11  3  2  0
 11 13  1  0
  3  4  1  0
 13  7  2  0
  4  5  2  0
  7  5  1  0
  7  2  1  0
  5  6  1  0
  2 12  1  0
  6 12  2  0
M  END
$$$$
