5rhg_A_705_1_5rhg+A+705+1__LIG
     RDKit          3D

 14 14  0  0  0  0  0  0  0  0999 V2000
    7.7270    0.7130  -28.1440 N   0  0  0  0  0  0  0  0  0  0  0  0
    9.8740   -1.8160  -25.4530 C   0  0  0  0  0  0  0  0  0  0  0  0
    8.6800   -1.1700  -25.0260 C   0  0  0  0  0  0  0  0  0  0  0  0
    8.1750   -1.3140  -23.6410 C   0  0  0  0  0  0  0  0  0  0  0  0
    7.9630   -0.3300  -25.8770 C   0  0  0  0  0  0  0  0  0  0  0  0
    8.4190   -0.1010  -27.1840 C   0  0  0  0  0  0  0  0  0  0  0  0
    5.8640    1.7260  -29.3970 C   0  0  0  0  0  0  0  0  0  0  0  0
   11.3510   -0.1550  -29.1260 C   0  0  0  0  0  0  0  0  0  0  0  0
    9.6180   -0.7400  -27.6010 C   0  0  0  0  0  0  0  0  0  0  0  0
   10.3430   -1.5920  -26.7400 C   0  0  0  0  0  0  0  0  0  0  0  0
    6.3630    0.7940  -28.2760 C   0  0  0  0  0  0  0  0  0  0  0  0
    4.4230    1.9340  -29.2420 N   0  0  0  0  0  0  0  0  0  0  0  0
    9.9870   -0.5170  -28.9240 O   0  0  0  0  0  0  0  0  0  0  0  0
    5.6260    0.1620  -27.5680 O   0  0  0  0  0  0  0  0  0  0  0  0
  7 12  1  0
  7 11  1  0
 11 14  2  0
 11  1  1  0
  1  6  1  0
  8 13  1  0
 13  9  1  0
  6  9  2  0
  6  5  1  0
  9 10  1  0
  5  3  2  0
 10  2  2  0
  3  2  1  0
  3  4  1  0
M  END
$$$$
