7ga2_A_704_1_7g9m+A+704+1__LIG
     RDKit          3D

 14 14  0  0  0  0  0  0  0  0999 V2000
  -14.4370   10.2110  -31.9560 C   0  0  0  0  0  0  0  0  0  0  0  0
  -13.1040    7.6620  -30.3850 C   0  0  0  0  0  0  0  0  0  0  0  0
  -13.3200    6.4160  -29.5650 C   0  0  0  0  0  0  0  0  0  0  0  0
  -13.8430    6.9290  -28.2480 C   0  0  0  0  0  0  0  0  0  0  0  0
  -13.9620    8.6700  -29.7310 N   0  0  0  0  0  0  0  0  0  0  0  0
  -12.2000    8.8040  -27.8750 C   0  0  0  0  0  0  0  0  0  0  0  0
  -15.5160    8.3750  -26.8450 O   0  0  0  0  0  0  0  0  0  0  0  0
  -13.6290    8.4500  -28.2990 C   0  0  2  0  0  0  0  0  0  0  0  0
  -14.5850    9.1830  -27.3460 C   0  0  0  0  0  0  0  0  0  0  0  0
  -16.2990    8.8950  -25.7400 C   0  0  0  0  0  0  0  0  0  0  0  0
  -14.4720   10.3470  -27.0690 O   0  0  0  0  0  0  0  0  0  0  0  0
  -12.5070   10.5780  -30.3200 O   0  0  0  0  0  0  0  0  0  0  0  0
  -14.8180   10.9800  -29.5160 O   0  0  0  0  0  0  0  0  0  0  0  0
  -13.8920   10.2060  -30.2940 S   0  0  0  0  0  0  0  0  0  0  0  0
  8  6  1  6
  9  8  1  0
  7  9  1  0
 10  7  1  0
 11  9  2  0
  8  5  1  0
  5 14  1  0
 12 14  2  0
  1 14  1  0
 14 13  2  0
  2  5  1  0
  3  2  1  0
  4  3  1  0
  8  4  1  0
M  END
$$$$
